Version 4.1
SHEET 1 5196 1172
WIRE 0 32 0 0
WIRE 128 32 128 0
WIRE 272 32 272 0
WIRE -336 128 -368 128
WIRE -288 128 -336 128
WIRE -176 128 -208 128
WIRE -160 128 -176 128
WIRE 32 128 -80 128
WIRE 816 128 816 80
WIRE 1456 128 1456 80
WIRE 2112 128 2112 80
WIRE 0 144 0 112
WIRE 128 144 128 112
WIRE 272 144 272 112
WIRE -1024 208 -1088 208
WIRE -880 208 -944 208
WIRE -736 208 -800 208
WIRE -640 208 -672 208
WIRE -512 208 -560 208
WIRE 432 208 304 208
WIRE 608 208 432 208
WIRE 976 208 896 208
WIRE 1248 208 976 208
WIRE 1600 208 1536 208
WIRE 1904 208 1600 208
WIRE 2256 208 2192 208
WIRE -48 224 -48 176
WIRE -176 240 -176 128
WIRE -80 240 -176 240
WIRE 32 256 32 128
WIRE 32 256 -16 256
WIRE 304 256 304 208
WIRE 304 256 32 256
WIRE -512 272 -512 208
WIRE -320 272 -512 272
WIRE -176 272 -256 272
WIRE -80 272 -176 272
WIRE -1088 336 -1088 208
WIRE -1024 336 -1088 336
WIRE -512 336 -512 272
WIRE -512 336 -960 336
WIRE -48 336 -48 288
WIRE 688 336 688 288
WIRE 816 336 816 288
WIRE 1328 336 1328 288
WIRE 1456 336 1456 288
WIRE 1984 336 1984 288
WIRE 2112 336 2112 288
WIRE -1088 384 -1088 336
WIRE -176 400 -176 352
WIRE -128 400 -176 400
WIRE -112 400 -128 400
FLAG 0 144 0
FLAG 128 144 0
FLAG 0 0 Vp
FLAG 128 0 Vn
FLAG 816 80 Vp
FLAG 816 336 Vn
FLAG 976 208 OUT1
FLAG 272 144 0
FLAG 272 0 Vref
FLAG 688 336 Vref
FLAG 432 208 IN
FLAG 1600 208 OUT2
FLAG 1456 80 Vp
FLAG 1456 336 Vn
FLAG 1328 336 Vref
FLAG 2256 208 OUT
FLAG 2112 80 Vp
FLAG 2112 336 Vn
FLAG 1984 336 Vref
FLAG -128 400 Vref
FLAG -48 336 Vn
FLAG -48 176 Vp
FLAG -336 128 Vref
FLAG -1088 384 0
SYMBOL voltage 0 16 R0
WINDOW 123 0 0 Left 2
WINDOW 39 0 0 Left 2
SYMATTR InstName V2
SYMATTR Value 3.3
SYMBOL voltage 128 16 R0
WINDOW 123 0 0 Left 2
WINDOW 39 0 0 Left 2
SYMATTR InstName V3
SYMATTR Value 0
SYMBOL voltage 272 16 R0
WINDOW 123 0 0 Left 2
WINDOW 39 0 0 Left 2
SYMATTR InstName V1
SYMATTR Value 1.65
SYMBOL StageA_BandPassDeliyannisFriendNoPosFB_AD8655 640 160 R0
WINDOW 39 -35 -155 Left 2
WINDOW 0 -36 -221 Left 2
SYMATTR InstName STAGE1
SYMBOL StageB_BandPassDeliyannisFriendNoPosFB_AD8655 1280 160 R0
WINDOW 0 -35 -219 Left 2
WINDOW 39 -36 -158 Left 2
SYMATTR InstName STAGE2
SYMBOL StageC_BandPassDeliyannisFriendNoPosFB_AD8655 1936 160 R0
WINDOW 0 -35 -219 Left 2
WINDOW 39 -35 -157 Left 2
SYMATTR InstName STAGE3
SYMBOL OpAmps\\AD8655 -48 192 R0
SYMATTR InstName U1
SYMBOL cap -256 256 R90
WINDOW 0 0 32 VBottom 2
WINDOW 3 32 32 VTop 2
SYMATTR InstName C1
SYMATTR Value 10n
SYMBOL res -192 256 R0
SYMATTR InstName R1
SYMATTR Value 10k
SYMBOL res -64 112 R90
WINDOW 0 0 56 VBottom 2
WINDOW 3 32 56 VTop 2
SYMATTR InstName R2
SYMATTR Value 10k
SYMBOL res -192 112 R90
WINDOW 0 0 56 VBottom 2
WINDOW 3 32 56 VTop 2
SYMATTR InstName R3
SYMATTR Value 1k
SYMBOL res -928 192 R90
WINDOW 0 0 56 VBottom 2
WINDOW 3 32 56 VTop 2
SYMATTR InstName R4
SYMATTR Value 450
SYMBOL ind -896 224 R270
WINDOW 0 32 56 VTop 2
WINDOW 3 5 56 VBottom 2
SYMATTR InstName L1
SYMATTR Value 16m
SYMATTR SpiceLine Rser=1m
SYMBOL cap -672 192 R90
WINDOW 0 0 32 VBottom 2
WINDOW 3 32 32 VTop 2
SYMATTR InstName C2
SYMATTR Value 2250p
SYMBOL cap -960 320 R90
WINDOW 0 0 32 VBottom 2
WINDOW 3 32 32 VTop 2
SYMATTR InstName C3
SYMATTR Value 15600p
SYMBOL voltage -544 208 R90
WINDOW 123 24 124 Left 2
WINDOW 39 0 0 Left 2
SYMATTR Value2 AC 1
SYMATTR InstName VIN1
SYMATTR Value SINE(0 10m 26k)
TEXT 280 648 Left 2 !.ac dec 1000 100 500k\n.save V(*?*) I(*?*)
TEXT 848 648 Left 2 ;If you're having trouble with simulation try the following:\n \n- Ensure that LTspice circuit folder is unzipped.  LTspice won't \nbe able to locate subcircuits if the folders are still zipped.\n \n- Update LTspice - devices that have been recently added to LTspice\nwon't be available unless you update by clicking Tools -> Sync Release.
TEXT 280 704 Left 2 ;.tran 100ms
