Version 4.1
SHEET 1 5196 832
WIRE -96 -480 -96 -512
WIRE 32 -480 32 -512
WIRE 176 -480 176 -512
WIRE -96 -368 -96 -400
WIRE 32 -368 32 -400
WIRE 176 -368 176 -400
WIRE -160 80 -192 80
WIRE -112 80 -160 80
WIRE 0 80 -32 80
WIRE 16 80 0 80
WIRE 208 80 96 80
WIRE 816 128 816 80
WIRE 1456 128 1456 80
WIRE 2112 128 2112 80
WIRE 128 176 128 128
WIRE 0 192 0 80
WIRE 96 192 0 192
WIRE 208 208 208 80
WIRE 208 208 160 208
WIRE 608 208 208 208
WIRE 976 208 896 208
WIRE 1248 208 976 208
WIRE 1600 208 1536 208
WIRE 1904 208 1600 208
WIRE 2256 208 2192 208
WIRE -192 224 -272 224
WIRE -144 224 -192 224
WIRE 0 224 -80 224
WIRE 96 224 0 224
WIRE 128 288 128 240
WIRE 688 336 688 288
WIRE 816 336 816 288
WIRE 1328 336 1328 288
WIRE 1456 336 1456 288
WIRE 1984 336 1984 288
WIRE 2112 336 2112 288
WIRE 0 352 0 304
WIRE 48 352 0 352
WIRE 64 352 48 352
WIRE -272 384 -272 224
WIRE -272 576 -272 464
FLAG -272 576 0
FLAG -96 -368 0
FLAG 32 -368 0
FLAG -96 -512 Vp
FLAG 32 -512 Vn
FLAG 816 80 Vp
FLAG 816 336 Vn
FLAG 976 208 OUT1
FLAG 176 -368 0
FLAG 176 -512 Vref
FLAG 688 336 Vref
FLAG 1600 208 OUT2
FLAG 1456 80 Vp
FLAG 1456 336 Vn
FLAG 1328 336 Vref
FLAG 2256 208 OUT
FLAG 2112 80 Vp
FLAG 2112 336 Vn
FLAG 1984 336 Vref
FLAG 48 352 Vref
FLAG 128 288 Vn
FLAG 128 128 Vp
FLAG -160 80 Vref
FLAG -192 224 IN
SYMBOL voltage -272 368 R0
WINDOW 123 24 124 Left 2
WINDOW 39 0 0 Left 2
SYMATTR Value2 AC 1
SYMATTR InstName VNOISE
SYMATTR Value SINE(1.65 136m 2.2k)
SYMBOL voltage -96 -496 R0
WINDOW 123 0 0 Left 2
WINDOW 39 0 0 Left 2
SYMATTR InstName V2
SYMATTR Value 3.3
SYMBOL voltage 32 -496 R0
WINDOW 123 0 0 Left 2
WINDOW 39 0 0 Left 2
SYMATTR InstName V3
SYMATTR Value 0
SYMBOL voltage 176 -496 R0
WINDOW 123 0 0 Left 2
WINDOW 39 0 0 Left 2
SYMATTR InstName V1
SYMATTR Value 1.65
SYMBOL StageA_BandPassDeliyannisFriendNoPosFB_AD8655 640 160 R0
WINDOW 39 -35 -155 Left 2
WINDOW 0 -36 -221 Left 2
SYMATTR InstName STAGE1
SYMBOL StageB_BandPassDeliyannisFriendNoPosFB_AD8655 1280 160 R0
WINDOW 0 -35 -219 Left 2
WINDOW 39 -36 -158 Left 2
SYMATTR InstName STAGE2
SYMBOL StageC_BandPassDeliyannisFriendNoPosFB_AD8655 1936 160 R0
WINDOW 0 -35 -219 Left 2
WINDOW 39 -35 -157 Left 2
SYMATTR InstName STAGE3
SYMBOL OpAmps\\AD8655 128 144 R0
SYMATTR InstName U1
SYMBOL cap -80 208 R90
WINDOW 0 0 32 VBottom 2
WINDOW 3 32 32 VTop 2
SYMATTR InstName C1
SYMATTR Value 10n
SYMBOL res -16 208 R0
SYMATTR InstName R1
SYMATTR Value 10k
SYMBOL res 112 64 R90
WINDOW 0 0 56 VBottom 2
WINDOW 3 32 56 VTop 2
SYMATTR InstName R2
SYMATTR Value 10k
SYMBOL res -16 64 R90
WINDOW 0 0 56 VBottom 2
WINDOW 3 32 56 VTop 2
SYMATTR InstName R3
SYMATTR Value 1k
TEXT 280 648 Left 2 !.NOISE V(OUT) VNOISE DEC 100 2.24k 402k \n.save V(*?*) I(*?*)
TEXT 904 648 Left 2 ;If you're having trouble with simulation try the following:\n \n- Ensure that LTspice circuit folder is unzipped.  LTspice won't \nbe able to locate subcircuits if the folders are still zipped.\n \n- Update LTspice - devices that have been recently added to LTspice\nwon't be available unless you update by clicking Tools -> Sync Release.
