Version 4.1
SHEET 1 5196 964
WIRE 464 -416 464 -448
WIRE 592 -416 592 -448
WIRE 736 -416 736 -448
WIRE 464 -304 464 -336
WIRE 592 -304 592 -336
WIRE 736 -304 736 -336
WIRE 192 80 96 80
WIRE 304 80 272 80
WIRE 320 80 304 80
WIRE 512 80 400 80
WIRE 816 128 816 80
WIRE 1456 128 1456 80
WIRE 2112 128 2112 80
WIRE -560 160 -624 160
WIRE -416 160 -480 160
WIRE -272 160 -336 160
WIRE -176 160 -208 160
WIRE -48 160 -96 160
WIRE 432 176 432 128
WIRE 304 192 304 80
WIRE 400 192 304 192
WIRE 512 208 512 80
WIRE 512 208 464 208
WIRE 608 208 512 208
WIRE 976 208 896 208
WIRE 1248 208 976 208
WIRE 1600 208 1536 208
WIRE 1904 208 1600 208
WIRE 2256 208 2192 208
WIRE -48 224 -48 160
WIRE 144 224 -48 224
WIRE 160 224 144 224
WIRE 304 224 224 224
WIRE 400 224 304 224
WIRE -624 288 -624 160
WIRE -560 288 -624 288
WIRE -48 288 -48 224
WIRE -48 288 -496 288
WIRE 432 288 432 240
WIRE -624 336 -624 288
WIRE 688 336 688 288
WIRE 816 336 816 288
WIRE 1328 336 1328 288
WIRE 1456 336 1456 288
WIRE 1984 336 1984 288
WIRE 2112 336 2112 288
WIRE 304 352 304 304
WIRE 352 352 304 352
WIRE 368 352 352 352
WIRE -256 656 -256 512
WIRE -256 848 -256 736
FLAG -256 848 0
FLAG 464 -304 0
FLAG 592 -304 0
FLAG 464 -448 Vp
FLAG 592 -448 Vn
FLAG 816 80 Vp
FLAG 816 336 Vn
FLAG 976 208 OUT1
FLAG 736 -304 0
FLAG 736 -448 Vref
FLAG 688 336 Vref
FLAG 144 224 IN
FLAG 1600 208 OUT2
FLAG 1456 80 Vp
FLAG 1456 336 Vn
FLAG 1328 336 Vref
FLAG 2256 208 OUT
FLAG 2112 80 Vp
FLAG 2112 336 Vn
FLAG 1984 336 Vref
FLAG 352 352 Vref
FLAG 432 288 Vn
FLAG 432 128 Vp
FLAG 96 80 Vref
FLAG -624 336 0
SYMBOL voltage -256 640 R0
WINDOW 123 24 124 Left 2
WINDOW 39 0 0 Left 2
SYMATTR Value2 AC 1
SYMATTR InstName VIN
SYMATTR Value SINE(0 10m 30k 0 0 0 1000)
SYMBOL voltage 464 -432 R0
WINDOW 123 0 0 Left 2
WINDOW 39 0 0 Left 2
SYMATTR InstName V2
SYMATTR Value 3.3
SYMBOL voltage 592 -432 R0
WINDOW 123 0 0 Left 2
WINDOW 39 0 0 Left 2
SYMATTR InstName V3
SYMATTR Value 0
SYMBOL voltage 736 -432 R0
WINDOW 123 0 0 Left 2
WINDOW 39 0 0 Left 2
SYMATTR InstName V1
SYMATTR Value 1.7
SYMBOL StageA_BandPassDeliyannisFriendNoPosFB_AD8655 640 160 R0
WINDOW 39 -35 -155 Left 2
WINDOW 0 -36 -221 Left 2
SYMATTR InstName STAGE1
SYMBOL StageB_BandPassDeliyannisFriendNoPosFB_AD8655 1280 160 R0
WINDOW 0 -35 -219 Left 2
WINDOW 39 -36 -158 Left 2
SYMATTR InstName STAGE2
SYMBOL StageC_BandPassDeliyannisFriendNoPosFB_AD8655 1936 160 R0
WINDOW 0 -35 -219 Left 2
WINDOW 39 -35 -157 Left 2
SYMATTR InstName STAGE3
SYMBOL OpAmps\\AD8655 432 144 R0
SYMATTR InstName U1
SYMBOL cap 224 208 R90
WINDOW 0 0 32 VBottom 2
WINDOW 3 32 32 VTop 2
SYMATTR InstName C1
SYMATTR Value 10n
SYMBOL res 288 208 R0
SYMATTR InstName R1
SYMATTR Value 10k
SYMBOL res 416 64 R90
WINDOW 0 0 56 VBottom 2
WINDOW 3 32 56 VTop 2
SYMATTR InstName R2
SYMATTR Value 10k
SYMBOL res 288 64 R90
WINDOW 0 0 56 VBottom 2
WINDOW 3 32 56 VTop 2
SYMATTR InstName R3
SYMATTR Value 1k
SYMBOL res -464 144 R90
WINDOW 0 0 56 VBottom 2
WINDOW 3 32 56 VTop 2
SYMATTR InstName R4
SYMATTR Value 450
SYMBOL ind -432 176 R270
WINDOW 0 32 56 VTop 2
WINDOW 3 5 56 VBottom 2
SYMATTR InstName L1
SYMATTR Value 16m
SYMATTR SpiceLine Rser=1m
SYMBOL cap -208 144 R90
WINDOW 0 0 32 VBottom 2
WINDOW 3 32 32 VTop 2
SYMATTR InstName C2
SYMATTR Value 2250p
SYMBOL cap -496 272 R90
WINDOW 0 0 32 VBottom 2
WINDOW 3 32 32 VTop 2
SYMATTR InstName C3
SYMATTR Value 15600p
SYMBOL voltage -80 160 R90
WINDOW 123 24 124 Left 2
WINDOW 39 0 0 Left 2
SYMATTR Value2 AC 1
SYMATTR InstName VIN1
SYMATTR Value SINE(0 10m 26k)
TEXT 280 648 Left 2 !.tran 1m\n.save V(*?*) I(*?*)
TEXT 848 648 Left 2 ;If you're having trouble with simulation try the following:\n \n- Ensure that LTspice circuit folder is unzipped.  LTspice won't \nbe able to locate subcircuits if the folders are still zipped.\n \n- Update LTspice - devices that have been recently added to LTspice\nwon't be available unless you update by clicking Tools -> Sync Release.
