Version 4.1
SHEET 1 880 680
WIRE 128 -96 64 -96
WIRE 272 -96 208 -96
WIRE 416 -96 352 -96
WIRE 64 32 64 -96
WIRE 64 32 -32 32
WIRE 128 32 64 32
WIRE 480 32 480 -96
WIRE 480 32 192 32
WIRE -32 48 -32 32
WIRE 480 96 480 32
WIRE -32 192 -32 128
FLAG -32 192 0
FLAG 480 96 0
SYMBOL res 224 -112 R90
WINDOW 0 0 56 VBottom 2
WINDOW 3 32 56 VTop 2
SYMATTR InstName R1
SYMATTR Value 450
SYMBOL ind 256 -80 R270
WINDOW 0 32 56 VTop 2
WINDOW 3 5 56 VBottom 2
SYMATTR InstName L1
SYMATTR Value 16m
SYMATTR SpiceLine Rser=1m
SYMBOL cap 480 -112 R90
WINDOW 0 0 32 VBottom 2
WINDOW 3 32 32 VTop 2
SYMATTR InstName C1
SYMATTR Value 2250p
SYMBOL cap 192 16 R90
WINDOW 0 0 32 VBottom 2
WINDOW 3 32 32 VTop 2
SYMATTR InstName C2
SYMATTR Value 15600p
SYMBOL current -32 48 R0
WINDOW 123 24 108 Left 2
WINDOW 39 0 0 Left 0
SYMATTR Value2 AC 1 0
SYMATTR InstName I1
SYMATTR Value ""
TEXT 640 -96 Left 2 !.ac lin 1000 10k 45k\n.save V(*?*) I(*?*)
