Version 4.1
SHEET 1 2084 776
WIRE 128 -336 112 -336
WIRE 144 -336 128 -336
WIRE 272 -336 256 -336
WIRE 288 -336 272 -336
WIRE 112 -272 112 -336
WIRE 256 -272 256 -336
WIRE 112 -160 112 -192
WIRE 256 -160 256 -192
WIRE 336 -160 304 -160
WIRE 480 -160 416 -160
WIRE 1008 -112 848 -112
WIRE 1616 -112 1088 -112
WIRE 368 -16 368 -80
WIRE -208 0 -224 0
WIRE 96 0 -208 0
WIRE 192 0 160 0
WIRE 208 0 192 0
WIRE 304 0 304 -160
WIRE 304 0 288 0
WIRE 336 0 304 0
WIRE 480 16 480 -160
WIRE 480 16 400 16
WIRE 576 16 480 16
WIRE 672 16 656 16
WIRE 880 16 672 16
WIRE 1616 16 1616 -112
WIRE 1616 16 1232 16
WIRE 336 32 320 32
WIRE -224 64 -224 0
WIRE 192 64 192 0
WIRE 672 80 672 16
WIRE 688 80 672 80
WIRE 880 80 768 80
WIRE 1408 80 1232 80
WIRE 1456 80 1408 80
WIRE 1616 80 1616 16
WIRE 1616 80 1536 80
WIRE 320 96 320 32
WIRE 368 96 368 48
WIRE 672 144 672 80
WIRE 768 144 672 144
WIRE 848 144 848 -112
WIRE 880 144 848 144
WIRE 1264 144 1232 144
WIRE 1616 144 1616 80
WIRE 1616 144 1344 144
WIRE -224 176 -224 144
WIRE 1408 192 1408 80
WIRE 1744 192 1408 192
WIRE 192 208 192 144
WIRE 880 208 784 208
WIRE 1280 208 1232 208
WIRE 1280 224 1280 208
WIRE 1312 272 1232 272
WIRE 2016 288 1264 288
WIRE 752 336 528 336
WIRE 848 336 832 336
WIRE 880 336 848 336
WIRE 1264 336 1264 288
WIRE 1264 336 1232 336
WIRE 1280 336 1264 336
WIRE 1568 336 1360 336
WIRE 528 400 528 336
WIRE 592 400 528 400
WIRE 880 400 672 400
WIRE 1392 400 1232 400
WIRE 1568 400 1568 336
WIRE 1568 400 1472 400
WIRE 528 464 528 400
WIRE 880 464 528 464
WIRE 1568 464 1568 400
WIRE 1568 464 1232 464
WIRE 848 560 848 336
WIRE 992 560 848 560
WIRE 1568 560 1568 464
WIRE 1568 560 1072 560
WIRE 528 672 528 464
WIRE 1040 672 528 672
WIRE 1744 672 1744 192
WIRE 1744 672 1120 672
FLAG 112 -160 0
FLAG 256 -160 0
FLAG 128 -336 V
FLAG 272 -336 Vref
FLAG -224 176 0
FLAG 368 96 0
FLAG 368 -80 V
FLAG 320 96 Vref
FLAG 192 208 Vref
FLAG 784 208 V
FLAG 1280 224 0
FLAG 1312 272 Vref
FLAG 2016 288 OUT
FLAG -208 0 IN
SYMBOL cap 160 -16 R90
WINDOW 0 0 32 VBottom 2
WINDOW 3 32 32 VTop 2
SYMATTR InstName C1
SYMATTR Value 0.1µ
SYMBOL res 304 -16 R90
WINDOW 0 0 56 VBottom 2
WINDOW 3 32 56 VTop 2
SYMATTR InstName R1
SYMATTR Value 10k
SYMBOL OpAmps\\AD8065 368 -48 R0
SYMATTR InstName U1
SYMBOL FilterProducts\\LTC1562 1056 240 R0
SYMATTR InstName U2
SYMBOL res 176 48 R0
SYMATTR InstName R2
SYMATTR Value 10k
SYMBOL voltage 112 -288 R0
WINDOW 123 0 0 Left 0
WINDOW 39 0 0 Left 0
SYMATTR InstName V1
SYMATTR Value 6
SYMBOL voltage 256 -288 R0
WINDOW 123 0 0 Left 0
WINDOW 39 0 0 Left 0
SYMATTR InstName V2
SYMATTR Value 3
SYMBOL voltage -224 48 R0
WINDOW 123 24 124 Left 2
WINDOW 39 0 0 Left 0
SYMATTR InstName V3
SYMATTR Value SINE(0 1m 30k 0 0 0 0)
SYMATTR Value2 AC 1 0
SYMBOL res 672 0 R90
WINDOW 0 0 56 VBottom 2
WINDOW 3 32 56 VTop 2
SYMATTR InstName R3
SYMATTR Value 820k
SYMBOL res 432 -176 R90
WINDOW 0 0 56 VBottom 2
WINDOW 3 32 56 VTop 2
SYMATTR InstName R4
SYMATTR Value 510k
SYMBOL res 784 64 R90
WINDOW 0 0 56 VBottom 2
WINDOW 3 32 56 VTop 2
SYMATTR InstName R5
SYMATTR Value 240k
SYMBOL res 864 128 R90
WINDOW 0 0 56 VBottom 2
WINDOW 3 32 56 VTop 2
SYMATTR InstName R6
SYMATTR Value 130k
SYMBOL res 1104 -128 R90
WINDOW 0 0 56 VBottom 2
WINDOW 3 32 56 VTop 2
SYMATTR InstName R7
SYMATTR Value 120k
SYMBOL res 1552 64 R90
WINDOW 0 0 56 VBottom 2
WINDOW 3 32 56 VTop 2
SYMATTR InstName R8
SYMATTR Value 220k
SYMBOL res 1360 128 R90
WINDOW 0 0 56 VBottom 2
WINDOW 3 32 56 VTop 2
SYMATTR InstName R9
SYMATTR Value 91k
SYMBOL res 1136 656 R90
WINDOW 0 0 56 VBottom 2
WINDOW 3 32 56 VTop 2
SYMATTR InstName R10
SYMATTR Value 820k
SYMBOL res 688 384 R90
WINDOW 0 0 56 VBottom 2
WINDOW 3 32 56 VTop 2
SYMATTR InstName R11
SYMATTR Value 240k
SYMBOL res 848 320 R90
WINDOW 0 0 56 VBottom 2
WINDOW 3 32 56 VTop 2
SYMATTR InstName R12
SYMATTR Value 130k
SYMBOL res 1088 544 R90
WINDOW 0 0 56 VBottom 2
WINDOW 3 32 56 VTop 2
SYMATTR InstName R13
SYMATTR Value 120k
SYMBOL res 1488 384 R90
WINDOW 0 0 56 VBottom 2
WINDOW 3 32 56 VTop 2
SYMATTR InstName R14
SYMATTR Value 220k
SYMBOL res 1376 320 R90
WINDOW 0 0 56 VBottom 2
WINDOW 3 32 56 VTop 2
SYMATTR InstName R15
SYMATTR Value 91k
TEXT -256 728 Left 2 ;.ac dec 1000 100 500k
TEXT -256 760 Left 2 !.tran 1m
